/*--------------------------------*- C++ -*----------------------------------*\
| =========                 |                                                 |
| \\      /  F ield         | OpenFOAM: The Open Source CFD Toolbox           |
|  \\    /   O peration     | Version:  6                                     |
|   \\  /    A nd           | Web:      www.OpenFOAM.com                      |
|    \\/     M anipulation  |                                                 |
\*---------------------------------------------------------------------------*/
FoamFile
{
    version     2.0;
    format      ascii;
    class       dictionary;
    object      controlDict;
}
// * * * * * * * * * * * * * * * * * * * * * * * * * * * * * * * * * * * * * //

application     pimpleFoam;

startFrom       latestTime;

startTime       0;

stopAt          endTime;

endTime         50;

deltaT          0.001;

writeControl    runTime;

writeInterval   1;

purgeWrite      2;

writeFormat     ascii;

writePrecision  8;

writeCompression off;

timeFormat      general;

timePrecision   6;

runTimeModifiable yes;

adjustTimeStep  yes;

maxCo           1;
maxDeltaT       0.1;

// ************************************************************************* //
functions
{
    
    Nu
    {
        type                NusseltNumber;
        functionObjectLibs  ("libNusseltNumber.so");

        L                  0.0442;
        field              "T";
        fluidPatch         "bottom";
        solidPatch         "airToCopper";
    }
    
}
